# generated using pymatgen
data_SrSiN2
_symmetry_space_group_name_H-M   'P 1'
_cell_length_a   5.54669700
_cell_length_b   7.37806500
_cell_length_c   5.98884206
_cell_angle_alpha   90.00000000
_cell_angle_beta   112.68782220
_cell_angle_gamma   90.00000000
_symmetry_Int_Tables_number   1
_chemical_formula_structural   SrSiN2
_chemical_formula_sum   'Sr4 Si4 N8'
_cell_volume   226.12193136
_cell_formula_units_Z   4
loop_
 _symmetry_equiv_pos_site_id
 _symmetry_equiv_pos_as_xyz
  1  'x, y, z'
loop_
 _atom_type_symbol
 _atom_type_oxidation_number
  Sr2+  2.0
  Si4+  4.0
  N3-  -3.0
loop_
 _atom_site_type_symbol
 _atom_site_label
 _atom_site_symmetry_multiplicity
 _atom_site_fract_x
 _atom_site_fract_y
 _atom_site_fract_z
 _atom_site_occupancy
  Sr2+  Sr0  1  0.67578100  0.07490300  0.33704300  1
  Sr2+  Sr1  1  0.82421900  0.57490300  0.66295700  1
  Sr2+  Sr2  1  0.32421900  0.92509700  0.66295700  1
  Sr2+  Sr3  1  0.17578100  0.42509700  0.33704300  1
  Si4+  Si4  1  0.07073400  0.85870200  0.10479500  1
  Si4+  Si5  1  0.92926600  0.14129800  0.89520500  1
  Si4+  Si6  1  0.42926600  0.35870200  0.89520500  1
  Si4+  Si7  1  0.57073400  0.64129800  0.10479500  1
  N3-  N8  1  0.89043100  0.71688700  0.20946400  1
  N3-  N9  1  0.60956900  0.21688700  0.79053600  1
  N3-  N10  1  0.10956900  0.28311300  0.79053600  1
  N3-  N11  1  0.39043100  0.78311300  0.20946400  1
  N3-  N12  1  0.07927400  0.08655100  0.20969300  1
  N3-  N13  1  0.57927400  0.41344900  0.20969300  1
  N3-  N14  1  0.92072600  0.91344900  0.79030700  1
  N3-  N15  1  0.42072600  0.58655100  0.79030700  1
