# generated using pymatgen
data_Al2O3
_symmetry_space_group_name_H-M   'P 1'
_cell_length_a   5.16807427
_cell_length_b   4.79813000
_cell_length_c   4.79813064
_cell_angle_alpha   60.00000438
_cell_angle_beta   117.65902580
_cell_angle_gamma   117.65902201
_symmetry_Int_Tables_number   1
_chemical_formula_structural   Al2O3
_chemical_formula_sum   'Al4 O6'
_cell_volume   86.98630115
_cell_formula_units_Z   2
loop_
 _symmetry_equiv_pos_site_id
 _symmetry_equiv_pos_as_xyz
  1  'x, y, z'
loop_
 _atom_site_type_symbol
 _atom_site_label
 _atom_site_symmetry_multiplicity
 _atom_site_fract_x
 _atom_site_fract_y
 _atom_site_fract_z
 _atom_site_occupancy
  Al  Al0  1  0.55637800  0.85212600  0.85212600  1
  Al  Al1  1  0.94362200  0.64787400  0.64787400  1
  Al  Al2  1  0.05637800  0.35212600  0.35212600  1
  Al  Al3  1  0.44362200  0.14787400  0.14787400  1
  O  O4  1  0.25000000  0.05637600  0.44362400  1
  O  O5  1  0.75000000  0.55637600  0.25000000  1
  O  O6  1  0.25000000  0.44362400  0.75000000  1
  O  O7  1  0.25000000  0.75000000  0.05637600  1
  O  O8  1  0.75000000  0.25000000  0.94362400  1
  O  O9  1  0.75000000  0.94362400  0.55637600  1
