# generated using pymatgen
data_Si2N2O
_symmetry_space_group_name_H-M   'P 1'
_cell_length_a   5.54583200
_cell_length_b   8.96466600
_cell_length_c   4.89529300
_cell_angle_alpha   90.00000000
_cell_angle_beta   90.00000000
_cell_angle_gamma   90.00000000
_symmetry_Int_Tables_number   1
_chemical_formula_structural   Si2N2O
_chemical_formula_sum   'Si8 N8 O4'
_cell_volume   243.37698899
_cell_formula_units_Z   4
loop_
 _symmetry_equiv_pos_site_id
 _symmetry_equiv_pos_as_xyz
  1  'x, y, z'
loop_
 _atom_type_symbol
 _atom_type_oxidation_number
  Si4+  4.0
  N3-  -3.0
  O2-  -2.0
loop_
 _atom_site_type_symbol
 _atom_site_label
 _atom_site_symmetry_multiplicity
 _atom_site_fract_x
 _atom_site_fract_y
 _atom_site_fract_z
 _atom_site_occupancy
  Si4+  Si0  1  0.34959050  0.32288850  0.72918300  1
  Si4+  Si1  1  0.65040950  0.67711150  0.22918300  1
  Si4+  Si2  1  0.65040950  0.32288850  0.22918300  1
  Si4+  Si3  1  0.34959050  0.67711150  0.72918300  1
  Si4+  Si4  1  0.84959050  0.82288850  0.72918300  1
  Si4+  Si5  1  0.15040950  0.17711150  0.22918300  1
  Si4+  Si6  1  0.15040950  0.82288850  0.22918300  1
  Si4+  Si7  1  0.84959050  0.17711150  0.72918300  1
  N3-  N8  1  0.37662350  0.28045650  0.38510500  1
  N3-  N9  1  0.62337650  0.71954350  0.88510500  1
  N3-  N10  1  0.62337650  0.28045650  0.88510500  1
  N3-  N11  1  0.37662350  0.71954350  0.38510500  1
  N3-  N12  1  0.87662350  0.78045650  0.38510500  1
  N3-  N13  1  0.12337650  0.21954350  0.88510500  1
  N3-  N14  1  0.12337650  0.78045650  0.88510500  1
  N3-  N15  1  0.87662350  0.21954350  0.38510500  1
  O2-  O16  1  0.79068000  0.00000000  0.77870300  1
  O2-  O17  1  0.20932000  0.00000000  0.27870300  1
  O2-  O18  1  0.29068000  0.50000000  0.77870300  1
  O2-  O19  1  0.70932000  0.50000000  0.27870300  1
