# generated using pymatgen
data_SiO2
_symmetry_space_group_name_H-M   'P 1'
_cell_length_a   4.95616600
_cell_length_b   4.95616600
_cell_length_c   6.82726500
_cell_angle_alpha   90.00000000
_cell_angle_beta   90.00000000
_cell_angle_gamma   90.00000000
_symmetry_Int_Tables_number   1
_chemical_formula_structural   SiO2
_chemical_formula_sum   'Si4 O8'
_cell_volume   167.70207970
_cell_formula_units_Z   4
loop_
 _symmetry_equiv_pos_site_id
 _symmetry_equiv_pos_as_xyz
  1  'x, y, z'
loop_
 _atom_site_type_symbol
 _atom_site_label
 _atom_site_symmetry_multiplicity
 _atom_site_fract_x
 _atom_site_fract_y
 _atom_site_fract_z
 _atom_site_occupancy
  Si  Si0  1  0.69032900  0.69032900  0.50000000  1
  Si  Si1  1  0.80967100  0.19032900  0.75000000  1
  Si  Si2  1  0.19032900  0.80967100  0.25000000  1
  Si  Si3  1  0.30967100  0.30967100  0.00000000  1
  O  O4  1  0.87608100  0.76484400  0.31074900  1
  O  O5  1  0.12391900  0.23515600  0.81074900  1
  O  O6  1  0.76484400  0.87608100  0.68925100  1
  O  O7  1  0.26484400  0.62391900  0.06074900  1
  O  O8  1  0.23515600  0.12391900  0.18925100  1
  O  O9  1  0.37608100  0.73515600  0.43925100  1
  O  O10  1  0.62391900  0.26484400  0.93925100  1
  O  O11  1  0.73515600  0.37608100  0.56074900  1
