# generated using pymatgen
data_Al2O3
_symmetry_space_group_name_H-M   'P 1'
_cell_length_a   4.80502783
_cell_length_b   4.80502783
_cell_length_c   13.11625361
_cell_angle_alpha   90.00000000
_cell_angle_beta   90.00000000
_cell_angle_gamma   120.00000000
_symmetry_Int_Tables_number   1
_chemical_formula_structural   Al2O3
_chemical_formula_sum   'Al12 O18'
_cell_volume   262.26011732
_cell_formula_units_Z   6
loop_
 _symmetry_equiv_pos_site_id
 _symmetry_equiv_pos_as_xyz
  1  'x, y, z'
loop_
 _atom_type_symbol
 _atom_type_oxidation_number
  Al3+  3.0
  O2-  -2.0
loop_
 _atom_site_type_symbol
 _atom_site_label
 _atom_site_symmetry_multiplicity
 _atom_site_fract_x
 _atom_site_fract_y
 _atom_site_fract_z
 _atom_site_occupancy
  Al3+  Al0  1  0.00000000  0.00000000  0.14790400  1
  Al3+  Al1  1  0.33333333  0.66666667  0.01876267  1
  Al3+  Al2  1  0.33333333  0.66666667  0.31457067  1
  Al3+  Al3  1  0.66666667  0.33333333  0.18542933  1
  Al3+  Al4  1  0.66666667  0.33333333  0.48123733  1
  Al3+  Al5  1  0.00000000  0.00000000  0.35209600  1
  Al3+  Al6  1  0.00000000  0.00000000  0.64790400  1
  Al3+  Al7  1  0.33333333  0.66666667  0.51876267  1
  Al3+  Al8  1  0.33333333  0.66666667  0.81457067  1
  Al3+  Al9  1  0.66666667  0.33333333  0.68542933  1
  Al3+  Al10  1  0.66666667  0.33333333  0.98123733  1
  Al3+  Al11  1  0.00000000  0.00000000  0.85209600  1
  O2-  O12  1  0.30614600  0.00000000  0.25000000  1
  O2-  O13  1  0.66666667  0.02718733  0.08333333  1
  O2-  O14  1  0.00000000  0.30614600  0.25000000  1
  O2-  O15  1  0.69385400  0.69385400  0.25000000  1
  O2-  O16  1  0.97281267  0.63947933  0.08333333  1
  O2-  O17  1  0.36052067  0.33333333  0.08333333  1
  O2-  O18  1  0.97281267  0.33333333  0.58333333  1
  O2-  O19  1  0.33333333  0.36052067  0.41666667  1
  O2-  O20  1  0.66666667  0.63947933  0.58333333  1
  O2-  O21  1  0.36052067  0.02718733  0.58333333  1
  O2-  O22  1  0.63947933  0.97281267  0.41666667  1
  O2-  O23  1  0.02718733  0.66666667  0.41666667  1
  O2-  O24  1  0.63947933  0.66666667  0.91666667  1
  O2-  O25  1  0.00000000  0.69385400  0.75000000  1
  O2-  O26  1  0.33333333  0.97281267  0.91666667  1
  O2-  O27  1  0.02718733  0.36052067  0.91666667  1
  O2-  O28  1  0.30614600  0.30614600  0.75000000  1
  O2-  O29  1  0.69385400  0.00000000  0.75000000  1
