# generated using pymatgen
data_MgSiO3
_symmetry_space_group_name_H-M   'P 1'
_cell_length_a   10.21447600
_cell_length_b   8.85657200
_cell_length_c   5.36694933
_cell_angle_alpha   90.00000000
_cell_angle_beta   112.86533548
_cell_angle_gamma   90.00000000
_symmetry_Int_Tables_number   1
_chemical_formula_structural   MgSiO3
_chemical_formula_sum   'Mg8 Si8 O24'
_cell_volume   447.37034379
_cell_formula_units_Z   8
loop_
 _symmetry_equiv_pos_site_id
 _symmetry_equiv_pos_as_xyz
  1  'x, y, z'
loop_
 _atom_type_symbol
 _atom_type_oxidation_number
  Mg2+  2.0
  Si4+  4.0
  O2-  -2.0
loop_
 _atom_site_type_symbol
 _atom_site_label
 _atom_site_symmetry_multiplicity
 _atom_site_fract_x
 _atom_site_fract_y
 _atom_site_fract_z
 _atom_site_occupancy
  Mg2+  Mg0  1  0.00000000  0.73890400  0.75000000  1
  Mg2+  Mg1  1  0.00000000  0.10084500  0.75000000  1
  Mg2+  Mg2  1  0.00000000  0.26109600  0.25000000  1
  Mg2+  Mg3  1  0.00000000  0.89915500  0.25000000  1
  Mg2+  Mg4  1  0.50000000  0.23890400  0.75000000  1
  Mg2+  Mg5  1  0.50000000  0.60084500  0.75000000  1
  Mg2+  Mg6  1  0.50000000  0.76109600  0.25000000  1
  Mg2+  Mg7  1  0.50000000  0.39915500  0.25000000  1
  Si4+  Si8  1  0.20824850  0.58910650  0.19855700  1
  Si4+  Si9  1  0.79175150  0.58910650  0.30144300  1
  Si4+  Si10  1  0.20824850  0.41089350  0.69855700  1
  Si4+  Si11  1  0.79175150  0.41089350  0.80144300  1
  Si4+  Si12  1  0.70824850  0.08910650  0.19855700  1
  Si4+  Si13  1  0.29175150  0.08910650  0.30144300  1
  Si4+  Si14  1  0.70824850  0.91089350  0.69855700  1
  Si4+  Si15  1  0.29175150  0.91089350  0.80144300  1
  O2-  O16  1  0.15286100  0.46735800  0.37434100  1
  O2-  O17  1  0.15286100  0.53264200  0.87434100  1
  O2-  O18  1  0.12034700  0.25595800  0.65620500  1
  O2-  O19  1  0.87965300  0.25595800  0.84379500  1
  O2-  O20  1  0.84713900  0.53264200  0.62565900  1
  O2-  O21  1  0.38156500  0.59273000  0.33416600  1
  O2-  O22  1  0.84713900  0.46735800  0.12565900  1
  O2-  O23  1  0.61843500  0.40727000  0.66583400  1
  O2-  O24  1  0.12034700  0.74404200  0.15620500  1
  O2-  O25  1  0.87965300  0.74404200  0.34379500  1
  O2-  O26  1  0.38156500  0.40727000  0.83416600  1
  O2-  O27  1  0.61843500  0.59273000  0.16583400  1
  O2-  O28  1  0.65286100  0.96735800  0.37434100  1
  O2-  O29  1  0.65286100  0.03264200  0.87434100  1
  O2-  O30  1  0.62034700  0.75595800  0.65620500  1
  O2-  O31  1  0.37965300  0.75595800  0.84379500  1
  O2-  O32  1  0.34713900  0.03264200  0.62565900  1
  O2-  O33  1  0.88156500  0.09273000  0.33416600  1
  O2-  O34  1  0.34713900  0.96735800  0.12565900  1
  O2-  O35  1  0.11843500  0.90727000  0.66583400  1
  O2-  O36  1  0.62034700  0.24404200  0.15620500  1
  O2-  O37  1  0.37965300  0.24404200  0.34379500  1
  O2-  O38  1  0.88156500  0.90727000  0.83416600  1
  O2-  O39  1  0.11843500  0.09273000  0.16583400  1
