# generated using pymatgen
data_SiO2
_symmetry_space_group_name_H-M   'P 1'
_cell_length_a   5.08470100
_cell_length_b   5.08470100
_cell_length_c   7.09857900
_cell_angle_alpha   90.00000000
_cell_angle_beta   90.00000000
_cell_angle_gamma   90.00000000
_symmetry_Int_Tables_number   1
_chemical_formula_structural   SiO2
_chemical_formula_sum   'Si4 O8'
_cell_volume   183.52796945
_cell_formula_units_Z   4
loop_
 _symmetry_equiv_pos_site_id
 _symmetry_equiv_pos_as_xyz
  1  'x, y, z'
loop_
 _atom_type_symbol
 _atom_type_oxidation_number
  Si4+  4.0
  O2-  -2.0
loop_
 _atom_site_type_symbol
 _atom_site_label
 _atom_site_symmetry_multiplicity
 _atom_site_fract_x
 _atom_site_fract_y
 _atom_site_fract_z
 _atom_site_occupancy
  Si4+  Si0  1  0.70555000  0.70555000  0.50000000  1
  Si4+  Si1  1  0.79445000  0.20555000  0.75000000  1
  Si4+  Si2  1  0.20555000  0.79445000  0.25000000  1
  Si4+  Si3  1  0.29445000  0.29445000  0.00000000  1
  O2-  O4  1  0.90589700  0.75897800  0.32564100  1
  O2-  O5  1  0.09410300  0.24102200  0.82564100  1
  O2-  O6  1  0.75897800  0.90589700  0.67435900  1
  O2-  O7  1  0.25897800  0.59410300  0.07564100  1
  O2-  O8  1  0.24102200  0.09410300  0.17435900  1
  O2-  O9  1  0.40589700  0.74102200  0.42435900  1
  O2-  O10  1  0.59410300  0.25897800  0.92435900  1
  O2-  O11  1  0.74102200  0.40589700  0.57564100  1
