# generated using pymatgen
data_SrSiN2
_symmetry_space_group_name_H-M   'P 1'
_cell_length_a   5.53802700
_cell_length_b   5.95838389
_cell_length_c   7.36463900
_cell_angle_alpha   90.00000000
_cell_angle_beta   90.00000000
_cell_angle_gamma   112.73618082
_symmetry_Int_Tables_number   1
_chemical_formula_structural   SrSiN2
_chemical_formula_sum   'Sr4 Si4 N8'
_cell_volume   224.13232597
_cell_formula_units_Z   4
loop_
 _symmetry_equiv_pos_site_id
 _symmetry_equiv_pos_as_xyz
  1  'x, y, z'
loop_
 _atom_site_type_symbol
 _atom_site_label
 _atom_site_symmetry_multiplicity
 _atom_site_fract_x
 _atom_site_fract_y
 _atom_site_fract_z
 _atom_site_occupancy
  Sr  Sr0  1  0.32419900  0.66255000  0.92507900  1
  Sr  Sr1  1  0.17580100  0.33745000  0.42507900  1
  Sr  Sr2  1  0.67580100  0.33745000  0.07492100  1
  Sr  Sr3  1  0.82419900  0.66255000  0.57492100  1
  Si  Si4  1  0.92915300  0.89503900  0.14133200  1
  Si  Si5  1  0.07084700  0.10496100  0.85866800  1
  Si  Si6  1  0.57084700  0.10496100  0.64133200  1
  Si  Si7  1  0.42915300  0.89503900  0.35866800  1
  N  N8  1  0.10897400  0.78936900  0.28327700  1
  N  N9  1  0.39102600  0.21063100  0.78327700  1
  N  N10  1  0.89102600  0.21063100  0.71672300  1
  N  N11  1  0.60897400  0.78936900  0.21672300  1
  N  N12  1  0.91997300  0.78899200  0.91312200  1
  N  N13  1  0.41997300  0.78899200  0.58687800  1
  N  N14  1  0.08002700  0.21100800  0.08687800  1
  N  N15  1  0.58002700  0.21100800  0.41312200  1
