# generated using pymatgen
data_TiO2
_symmetry_space_group_name_H-M   'P 1'
_cell_length_a   3.80952300
_cell_length_b   3.80952300
_cell_length_c   5.55089881
_cell_angle_alpha   69.93142315
_cell_angle_beta   110.06857685
_cell_angle_gamma   90.00000000
_symmetry_Int_Tables_number   1
_chemical_formula_structural   TiO2
_chemical_formula_sum   'Ti2 O4'
_cell_volume   70.43593197
_cell_formula_units_Z   2
loop_
 _symmetry_equiv_pos_site_id
 _symmetry_equiv_pos_as_xyz
  1  'x, y, z'
loop_
 _atom_site_type_symbol
 _atom_site_label
 _atom_site_symmetry_multiplicity
 _atom_site_fract_x
 _atom_site_fract_y
 _atom_site_fract_z
 _atom_site_occupancy
  Ti  Ti0  1  0.00000000  0.00000000  0.00000000  1
  Ti  Ti1  1  0.75000000  0.75000000  0.50000000  1
  O  O2  1  0.79341200  0.20658800  0.58682400  1
  O  O3  1  0.95658800  0.54341200  0.91317600  1
  O  O4  1  0.20658800  0.79341200  0.41317600  1
  O  O5  1  0.54341200  0.95658800  0.08682400  1
