# generated using pymatgen
data_Ca2N
_symmetry_space_group_name_H-M   'P 1'
_cell_length_a   3.60312974
_cell_length_b   3.60312974
_cell_length_c   19.27965187
_cell_angle_alpha   90.00000000
_cell_angle_beta   90.00000000
_cell_angle_gamma   120.00000000
_symmetry_Int_Tables_number   1
_chemical_formula_structural   Ca2N
_chemical_formula_sum   'Ca6 N3'
_cell_volume   216.76522952
_cell_formula_units_Z   3
loop_
 _symmetry_equiv_pos_site_id
 _symmetry_equiv_pos_as_xyz
  1  'x, y, z'
loop_
 _atom_site_type_symbol
 _atom_site_label
 _atom_site_symmetry_multiplicity
 _atom_site_fract_x
 _atom_site_fract_y
 _atom_site_fract_z
 _atom_site_occupancy
  Ca  Ca0  1  0.00000000  0.00000000  0.26859176  1.0
  Ca  Ca1  1  0.00000000  0.00000000  0.73140824  1.0
  Ca  Ca2  1  0.66666667  0.33333333  0.60192509  1.0
  Ca  Ca3  1  0.66666667  0.33333333  0.06474157  1.0
  Ca  Ca4  1  0.33333333  0.66666667  0.93525843  1.0
  Ca  Ca5  1  0.33333333  0.66666667  0.39807491  1.0
  N  N6  1  0.00000000  0.00000000  0.00000000  1.0
  N  N7  1  0.66666667  0.33333333  0.33333333  1.0
  N  N8  1  0.33333333  0.66666667  0.66666667  1.0
