# generated using pymatgen
data_Y2CI2
_symmetry_space_group_name_H-M   'P 1'
_cell_length_a   3.87849731
_cell_length_b   3.87849731
_cell_length_c   11.13827800
_cell_angle_alpha   90.00000000
_cell_angle_beta   90.00000000
_cell_angle_gamma   120.00000000
_symmetry_Int_Tables_number   1
_chemical_formula_structural   Y2CI2
_chemical_formula_sum   'Y2 C1 I2'
_cell_volume   145.10276029
_cell_formula_units_Z   1
loop_
 _symmetry_equiv_pos_site_id
 _symmetry_equiv_pos_as_xyz
  1  'x, y, z'
loop_
 _atom_site_type_symbol
 _atom_site_label
 _atom_site_symmetry_multiplicity
 _atom_site_fract_x
 _atom_site_fract_y
 _atom_site_fract_z
 _atom_site_occupancy
  Y  Y0  1  0.33333333  0.66666667  0.11823300  1
  Y  Y1  1  0.66666667  0.33333333  0.88176700  1
  C  C2  1  0.00000000  0.00000000  0.00000000  1
  I  I3  1  0.33333333  0.66666667  0.68700100  1
  I  I4  1  0.66666667  0.33333333  0.31299900  1
